
  EPA STORM WATER MANAGEMENT MODEL - VERSION 5.1 (Build 5.2.0.dev5)
  --------------------------------------------------------------

  
  *********************************************************
  NOTE: The summary statistics displayed in this report are
  based on results found at every computational time step,  
  not just on results from each reporting time step.
  *********************************************************
  
  ****************
  Analysis Options
  ****************
  Flow Units ............... CMS
  Process Models:
    Rainfall/Runoff ........ YES
    RDII ................... NO
    Snowmelt ............... NO
    Groundwater ............ NO
    Flow Routing ........... YES
    Ponding Allowed ........ NO
    Water Quality .......... YES
  Infiltration Method ...... HORTON
  Flow Routing Method ...... KINWAVE
  Starting Date ............ 01/27/2020 00:00:00
  Ending Date .............. 01/27/2020 08:00:00
  Antecedent Dry Days ...... 0.0
  Report Time Step ......... 00:00:01
  Wet Time Step ............ 00:00:01
  Dry Time Step ............ 00:00:01
  Routing Time Step ........ 1.00 sec
  
  
  **************************        Volume         Depth
  Runoff Quantity Continuity     hectare-m            mm
  **************************     ---------       -------
  Total Precipitation ......         3.500         3.500
  Evaporation Loss .........         0.000         0.000
  Infiltration Loss ........         0.000         0.000
  Surface Runoff ...........         3.500         3.500
  Final Storage ............         0.000         0.000
  Continuity Error (%) .....         0.000
  
  
  **************************            P1            P2
  Runoff Quality Continuity             kg            kg
  **************************    ----------    ----------
  Initial Buildup ..........         0.000         0.000
  Surface Buildup ..........       125.000       125.000
  Wet Deposition ...........         0.000         0.000
  Sweeping Removal .........         0.000         0.000
  Infiltration Loss ........         0.000         0.000
  BMP Removal ..............         0.000         0.000
  Surface Runoff ...........        83.322        83.322
  Remaining Buildup ........        41.678        41.678
  Continuity Error (%) .....         0.000         0.000
  
  
  **************************        Volume        Volume
  Flow Routing Continuity        hectare-m      10^6 ltr
  **************************     ---------     ---------
  Dry Weather Inflow .......         0.000         0.000
  Wet Weather Inflow .......         3.500        35.000
  Groundwater Inflow .......         0.000         0.000
  RDII Inflow ..............         0.000         0.000
  External Inflow ..........         0.000         0.000
  External Outflow .........         3.500        35.000
  Flooding Loss ............         0.000         0.000
  Evaporation Loss .........         0.000         0.000
  Exfiltration Loss ........         0.000         0.000
  Initial Stored Volume ....         0.000         0.000
  Final Stored Volume ......         0.000         0.000
  Continuity Error (%) .....         0.000
  
  
  **************************            P1            P2
  Quality Routing Continuity            kg            kg
  **************************    ----------    ----------
  Dry Weather Inflow .......         0.000         0.000
  Wet Weather Inflow .......        83.322        83.322
  Groundwater Inflow .......         0.000         0.000
  RDII Inflow ..............         0.000         0.000
  External Inflow ..........         0.000         0.000
  External Outflow .........        73.834        70.714
  Flooding Loss ............         0.000         0.000
  Exfiltration Loss ........         0.000         0.000
  Mass Reacted .............         9.628        12.742
  Initial Stored Mass ......         0.000         0.000
  Final Stored Mass ........         0.000         0.000
  Continuity Error (%) .....        -0.168        -0.161
  
  
  ********************************
  Highest Flow Instability Indexes
  ********************************
  All links are stable.
  
  
  *************************
  Routing Time Step Summary
  *************************
  Minimum Time Step           :     1.00 sec
  Average Time Step           :     1.00 sec
  Maximum Time Step           :     1.00 sec
  Percent in Steady State     :     0.00
  Average Iterations per Step :     1.00
  Percent Not Converging      :     0.00
  
  
  ***************************
  Subcatchment Runoff Summary
  ***************************
  
  ------------------------------------------------------------------------------------------------------------------------------
                            Total      Total      Total      Total     Imperv       Perv      Total       Total     Peak  Runoff
                           Precip      Runon       Evap      Infil     Runoff     Runoff     Runoff      Runoff   Runoff   Coeff
  Subcatchment                 mm         mm         mm         mm         mm         mm         mm    10^6 ltr      CMS
  ------------------------------------------------------------------------------------------------------------------------------
  Subcatch                   3.50       0.00       0.00       0.00       3.50       0.00       3.50       35.00     2.78   1.000
  
  
  ****************************
  Subcatchment Washoff Summary
  ****************************
  
  ------------------------------------------------
                                  P1            P2
  Subcatchment                    kg            kg
  ------------------------------------------------
  Subcatch                    83.322        83.322
  ------------------------------------------------
  System                      83.322        83.322
  
  
  ******************
  Node Depth Summary
  ******************
  
  ---------------------------------------------------------------------------------
                                 Average  Maximum  Maximum  Time of Max    Reported
                                   Depth    Depth      HGL   Occurrence   Max Depth
  Node                 Type       Meters   Meters   Meters  days hr:min      Meters
  ---------------------------------------------------------------------------------
  Outfall              OUTFALL      0.00     0.00     0.00     0  00:00        0.00
  Tank                 STORAGE      0.26     0.52    10.52     0  04:05        0.52
  
  
  *******************
  Node Inflow Summary
  *******************
  
  -------------------------------------------------------------------------------------------------
                                  Maximum  Maximum                  Lateral       Total        Flow
                                  Lateral    Total  Time of Max      Inflow      Inflow     Balance
                                   Inflow   Inflow   Occurrence      Volume      Volume       Error
  Node                 Type           CMS      CMS  days hr:min    10^6 ltr    10^6 ltr     Percent
  -------------------------------------------------------------------------------------------------
  Outfall              OUTFALL      0.000    2.778     0  04:05           0          35       0.000
  Tank                 STORAGE      2.778    2.778     0  04:00          35          35      -0.000
  
  
  *********************
  Node Flooding Summary
  *********************
  
  No nodes were flooded.
  
  
  **********************
  Storage Volume Summary
  **********************
  
  --------------------------------------------------------------------------------------------------
                         Average     Avg  Evap Exfil       Maximum     Max    Time of Max    Maximum
                          Volume    Pcnt  Pcnt  Pcnt        Volume    Pcnt     Occurrence    Outflow
  Storage Unit           1000 m3    Full  Loss  Loss       1000 m3    Full    days hr:min        CMS
  --------------------------------------------------------------------------------------------------
  Tank                     0.026       5     0     0         0.052      10       0  04:05      2.778
  
  
  ***********************
  Outfall Loading Summary
  ***********************
  
  ---------------------------------------------------------------------------------------
                         Flow       Avg       Max       Total         Total         Total
                         Freq      Flow      Flow      Volume            P1            P2
  Outfall Node           Pcnt       CMS       CMS    10^6 ltr            kg            kg
  ---------------------------------------------------------------------------------------
  Outfall               68.33     1.779     2.778      35.000        73.834        70.714
  ---------------------------------------------------------------------------------------
  System                68.33     1.779     2.778      35.000        73.834        70.714
  
  
  ********************
  Link Flow Summary
  ********************
  
  -----------------------------------------------------------------------------
                                 Maximum  Time of Max   Maximum    Max/    Max/
                                  |Flow|   Occurrence   |Veloc|    Full    Full
  Link                 Type          CMS  days hr:min     m/sec    Flow   Depth
  -----------------------------------------------------------------------------
  Valve                ORIFICE     2.778     0  04:05                          
  
  
  *************************
  Conduit Surcharge Summary
  *************************
  
  No conduits were surcharged.
  
  
  ***************************
  Link Pollutant Load Summary
  ***************************
  
  ------------------------------------------------
                                  P1            P2
  Link                            kg            kg
  ------------------------------------------------
  Valve                       73.834        70.714
  

  Analysis begun on:  Tue May 19 09:55:01 2020
  Analysis ended on:  Tue May 19 09:55:02 2020
  Total elapsed time: 00:00:01